!uks bp86 6-31g* tightscf esd(fluor)
!autoaux
!normalprint
!pal8

%scf
  maxiter 500
end

%tddft
  nroots 10
  iroot 5
end

%esd
  gshessian "benzene_0_1_bp86_6-31gpol.freq.hess"
  eshessian "benzene_0_1_bp86_6-31gpol.efreq.hess"
  doht true
  lines voigt
  linew 75
  inlinew 200
end

*xyzfile 0 1 benzene_0_1_bp86_6-31gpol.opt.xyz
