12
Coordinates from ORCA-job benzene_0_1_bp86_6-31gpol.eopt E -232.039864601412
  C       1.392214     -0.223483      0.005510
  C       0.509870     -1.315569     -0.008856
  C      -0.877466     -1.097910     -0.013889
  C      -1.382664      0.212515     -0.004507
  C      -0.500318      1.304570      0.009868
  C       0.887037      1.086920      0.014878
  H       2.474890     -0.393936      0.009536
  H       0.904025     -2.337891     -0.016204
  H      -1.565462     -1.950407     -0.025216
  H      -2.465351      0.382893     -0.008526
  H      -0.894438      2.326907      0.017327
  H       1.575013      1.939431      0.026088
12
Coordinates from ORCA-job benzene_0_1_bp86_6-31gpol.eopt E -232.044769493280
  C       1.417141     -0.227424      0.005609
  C       0.518984     -1.339085     -0.009024
  C      -0.893335     -1.117545     -0.014135
  C      -1.407586      0.216446     -0.004607
  C      -0.509429      1.328090      0.010040
  C       0.902900      1.106554      0.015121
  H       2.498474     -0.397684      0.009642
  H       0.912661     -2.360159     -0.016396
  H      -1.580486     -1.968992     -0.025435
  H      -2.488927      0.386651     -0.008633
  H      -0.903079      2.349174      0.017504
  H       1.590034      1.958014      0.026323
12
Coordinates from ORCA-job benzene_0_1_bp86_6-31gpol.eopt E -232.044998095824
  C       1.423204     -0.228382      0.005643
  C       0.521209     -1.344807     -0.009069
  C      -0.897218     -1.122356     -0.014177
  C      -1.413647      0.217397     -0.004641
  C      -0.511652      1.333813      0.010084
  C       0.906779      1.111365      0.015163
  H       2.503726     -0.398537      0.009694
  H       0.914583     -2.365094     -0.016483
  H      -1.583868     -1.973182     -0.025447
  H      -2.494175      0.387515     -0.008687
  H      -0.905009      2.354107      0.017566
  H       1.593417      1.962202      0.026363
12
Coordinates from ORCA-job benzene_0_1_bp86_6-31gpol.eopt E -232.045000664710
  C       1.423723     -0.228462      0.005652
  C       0.521402     -1.345298     -0.009075
  C      -0.897564     -1.122790     -0.014168
  C      -1.414165      0.217473     -0.004650
  C      -0.511846      1.334305      0.010089
  C       0.907124      1.111798      0.015157
  H       2.504241     -0.398629      0.009723
  H       0.914777     -2.365583     -0.016528
  H      -1.584211     -1.973613     -0.025418
  H      -2.494686      0.387615     -0.008718
  H      -0.905207      2.354594      0.017591
  H       1.593762      1.962629      0.026355
