12
Coordinates from ORCA-job benzene_0_1_bp86_6-31gpol.eopt E -231.976479286651
  C       1.392214     -0.223483      0.005510
  C       0.509870     -1.315569     -0.008856
  C      -0.877466     -1.097910     -0.013889
  C      -1.382664      0.212515     -0.004507
  C      -0.500318      1.304570      0.009868
  C       0.887037      1.086920      0.014878
  H       2.474890     -0.393936      0.009536
  H       0.904025     -2.337891     -0.016204
  H      -1.565462     -1.950407     -0.025216
  H      -2.465351      0.382893     -0.008526
  H      -0.894438      2.326907      0.017327
  H       1.575013      1.939431      0.026088
12
Coordinates from ORCA-job benzene_0_1_bp86_6-31gpol.eopt E -231.979494414255
  C       1.395468     -0.221016      0.005494
  C       0.508450     -1.327416     -0.008930
  C      -0.887711     -1.114806     -0.014048
  C      -1.385917      0.210042     -0.004500
  C      -0.498895      1.316418      0.009946
  C       0.897279      1.103817      0.015043
  H       2.490843     -0.388524      0.009686
  H       0.897339     -2.361495     -0.016425
  H      -1.575969     -1.974404     -0.025536
  H      -2.481299      0.377485     -0.008728
  H      -0.887756      2.350509      0.017683
  H       1.585518      1.963430      0.026327
12
Coordinates from ORCA-job benzene_0_1_bp86_6-31gpol.eopt E -231.991910869709
  C       1.387590     -0.205204      0.005515
  C       0.492598     -1.364957     -0.009316
  C      -0.925525     -1.183561     -0.014820
  C      -1.378034      0.194206     -0.004564
  C      -0.483034      1.353963      0.010343
  C       0.935081      1.172577      0.015840
  H       2.524033     -0.352023      0.010084
  H       0.844111     -2.436805     -0.017289
  H      -1.601322     -2.062479     -0.026431
  H      -2.514472      0.341003     -0.009450
  H      -0.834540      2.425814      0.018811
  H       1.610864      2.051506      0.027287
12
Coordinates from ORCA-job benzene_0_1_bp86_6-31gpol.eopt E -232.001649734497
  C       1.393576     -0.215905      0.005456
  C       0.503458     -1.343450     -0.009071
  C      -0.902669     -1.142212     -0.014321
  C      -1.384022      0.204918     -0.004516
  C      -0.493899      1.332455      0.010110
  C       0.912230      1.131223      0.015336
  H       2.497236     -0.373324      0.009758
  H       0.873910     -2.386369     -0.016699
  H      -1.582015     -2.005419     -0.025785
  H      -2.487683      0.362302     -0.009130
  H      -0.864336      2.375378      0.018200
  H       1.591564      1.994441      0.026673
12
Coordinates from ORCA-job benzene_0_1_bp86_6-31gpol.eopt E -231.979939851671
  C       1.404872     -0.223336      0.005424
  C       0.512660     -1.338225     -0.008980
  C      -0.895872     -1.126063     -0.014148
  C      -1.395316      0.212353     -0.004549
  C      -0.503104      1.327231      0.010076
  C       0.905435      1.115071      0.015167
  H       2.483663     -0.383885      0.009493
  H       0.889080     -2.359955     -0.016376
  H      -1.573053     -1.976614     -0.025296
  H      -2.474109      0.372876     -0.009181
  H      -0.879512      2.348960      0.017983
  H       1.582605      1.965629      0.026399
12
Coordinates from ORCA-job benzene_0_1_bp86_6-31gpol.eopt E -231.980957354791
  C       1.430968     -0.238200      0.004210
  C       0.520752     -1.348845     -0.008357
  C      -0.888361     -1.127767     -0.014104
  C      -1.421396      0.227236     -0.005661
  C      -0.511207      1.337839      0.010959
  C       0.897920      1.116768      0.015139
  H       2.474278     -0.399487      0.002692
  H       0.894043     -2.343298     -0.010725
  H      -1.553850     -1.962572     -0.023362
  H      -2.464648      0.388625     -0.015869
  H      -0.884541      2.332195      0.023411
  H       1.563392      1.951545      0.027676
12
Coordinates from ORCA-job benzene_0_1_bp86_6-31gpol.eopt E -231.984541838727
  C       1.426581     -0.236399      0.003247
  C       0.516346     -1.350212     -0.007645
  C      -0.891524     -1.137197     -0.014664
  C      -1.417002      0.225450     -0.006533
  C      -0.506809      1.339192      0.011757
  C       0.901085      1.126208      0.014740
  H       2.491987     -0.398305     -0.001655
  H       0.889963     -2.362707     -0.004551
  H      -1.561248     -1.982819     -0.024844
  H      -2.482305      0.387524     -0.020475
  H      -0.880525      2.351489      0.029978
  H       1.570800      1.971817      0.026655
12
Coordinates from ORCA-job benzene_0_1_bp86_6-31gpol.eopt E -232.001584622129
  C       1.434091     -0.243192     -0.006513
  C       0.514320     -1.353259      0.000956
  C      -0.893076     -1.152620     -0.021022
  C      -1.424425      0.232417     -0.015954
  C      -0.504880      1.342077      0.020568
  C       0.902682      1.141747      0.008578
  H       2.516386     -0.407737     -0.047547
  H       0.889357     -2.381605      0.067094
  H      -1.566946     -2.010314     -0.043725
  H      -2.506186      0.397806     -0.066696
  H      -0.880636      2.369065      0.101970
  H       1.576662      1.999656      0.008301
12
Coordinates from ORCA-job benzene_0_1_bp86_6-31gpol.eopt E -232.002701785273
  C       1.429070     -0.241205     -0.006558
  C       0.514673     -1.349977      0.000960
  C      -0.889593     -1.143959     -0.016896
  C      -1.419406      0.230435     -0.016013
  C      -0.505229      1.338800      0.020554
  C       0.899161      1.133013      0.012478
  H       2.508755     -0.405628     -0.044270
  H       0.894658     -2.375414      0.051325
  H      -1.568171     -1.999140     -0.034971
  H      -2.498597      0.395629     -0.063496
  H      -0.885772      2.363163      0.086151
  H       1.577801      1.988324      0.016745
12
Coordinates from ORCA-job benzene_0_1_bp86_6-31gpol.eopt E -231.983631960954
  C       1.416113     -0.232628     -0.005741
  C       0.515904     -1.343329     -0.001190
  C      -0.886904     -1.124853     -0.009333
  C      -1.406460      0.221846     -0.015431
  C      -0.506435      1.332187      0.018434
  C       0.896399      1.113776      0.019623
  H       2.494936     -0.395838     -0.033287
  H       0.906972     -2.362955      0.014481
  H      -1.576297     -1.972018     -0.014367
  H      -2.484882      0.385631     -0.053018
  H      -0.897720      2.351373      0.049480
  H       1.585723      1.960847      0.036359
12
Coordinates from ORCA-job benzene_0_1_bp86_6-31gpol.eopt E -232.003407971371
  C       1.423170     -0.237787     -0.010847
  C       0.515006     -1.346083      0.002792
  C      -0.888365     -1.135732     -0.013789
  C      -1.413461      0.227101     -0.020361
  C      -0.505587      1.334865      0.022444
  C       0.897888      1.124738      0.015394
  H       2.504166     -0.401710     -0.061704
  H       0.902436     -2.369710      0.057529
  H      -1.574290     -1.987113     -0.023898
  H      -2.493789      0.392030     -0.081323
  H      -0.893616      2.357327      0.092513
  H       1.583791      1.976114      0.027261
12
Coordinates from ORCA-job benzene_0_1_bp86_6-31gpol.eopt E -232.003630001142
  C       1.421253     -0.235558     -0.012981
  C       0.515475     -1.345340      0.003859
  C      -0.889278     -1.132752     -0.012146
  C      -1.411524      0.224911     -0.022552
  C      -0.506070      1.334105      0.023561
  C       0.898780      1.121730      0.016980
  H       2.501643     -0.399176     -0.069480
  H       0.905124     -2.367262      0.059305
  H      -1.577236     -1.982118     -0.018250
  H      -2.491174      0.389635     -0.089319
  H      -0.896323      2.354844      0.094407
  H       1.586679      1.971022      0.032628
12
Coordinates from ORCA-job benzene_0_1_bp86_6-31gpol.eopt E -231.984852655281
  C       1.416515     -0.227457     -0.018016
  C       0.517094     -1.344064      0.006822
  C      -0.894090     -1.124316     -0.006910
  C      -1.406775      0.216910     -0.027681
  C      -0.507729      1.332775      0.026751
  C       0.903516      1.113208      0.021611
  H       2.494752     -0.391139     -0.084993
  H       0.911969     -2.361533      0.055960
  H      -1.586241     -1.969146     -0.001865
  H      -2.484071      0.381883     -0.105564
  H      -0.903107      2.349162      0.091416
  H       1.595518      1.957758      0.048479
12
Coordinates from ORCA-job benzene_0_1_bp86_6-31gpol.eopt E -231.986468753799
  C       1.416983     -0.228018     -0.020073
  C       0.515344     -1.345259      0.006287
  C      -0.893166     -1.127122     -0.006994
  C      -1.407210      0.217506     -0.029638
  C      -0.505985      1.333976      0.026168
  C       0.902585      1.116023      0.021690
  H       2.496079     -0.391135     -0.103581
  H       0.908433     -2.364683      0.068424
  H      -1.584735     -1.974183      0.006664
  H      -2.485180      0.382205     -0.123970
  H      -0.899713      2.352082      0.103773
  H       1.593915      1.962647      0.057260
12
Coordinates from ORCA-job benzene_0_1_bp86_6-31gpol.eopt E -231.999653526099
  C       1.427816     -0.249160     -0.025822
  C       0.506890     -1.349383      0.005874
  C      -0.883804     -1.159513     -0.010196
  C      -1.417840      0.238733     -0.034945
  C      -0.497587      1.338087      0.025683
  C       0.893242      1.148498      0.019368
  H       2.510836     -0.411128     -0.158673
  H       0.883901     -2.382511      0.119305
  H      -1.562357     -2.021614      0.018665
  H      -2.499272      0.403153     -0.178243
  H      -0.875835      2.368957      0.154607
  H       1.571359      2.009920      0.070386
12
Coordinates from ORCA-job benzene_0_1_bp86_6-31gpol.eopt E -232.002500398624
  C       1.414233     -0.227166     -0.039365
  C       0.509701     -1.347094      0.009252
  C      -0.891252     -1.132825     -0.000213
  C      -1.404297      0.217005     -0.048510
  C      -0.500442      1.335759      0.029055
  C       0.900542      1.121627      0.028768
  H       2.486128     -0.385713     -0.234486
  H       0.899767     -2.366699      0.146617
  H      -1.583553     -1.982582      0.068214
  H      -2.473703      0.379098     -0.254291
  H      -0.891857      2.352713      0.181352
  H       1.592082      1.969918      0.119620
12
Coordinates from ORCA-job benzene_0_1_bp86_6-31gpol.eopt E -232.003354002269
  C       1.414247     -0.225311     -0.049411
  C       0.512461     -1.346788      0.024483
  C      -0.893048     -1.128597      0.006800
  C      -1.404193      0.215331     -0.059073
  C      -0.503321      1.335187      0.044329
  C       0.902309      1.117279      0.035391
  H       2.483358     -0.387675     -0.201629
  H       0.907142     -2.360500      0.124020
  H      -1.584400     -1.972217      0.046480
  H      -2.471376      0.380478     -0.221804
  H      -0.899008      2.346876      0.159227
  H       1.593181      1.959976      0.097198
12
Coordinates from ORCA-job benzene_0_1_bp86_6-31gpol.eopt E -231.987746729177
  C       1.414694     -0.225719     -0.043928
  C       0.513192     -1.345617      0.024667
  C      -0.892904     -1.127380      0.003248
  C      -1.404718      0.215646     -0.053734
  C      -0.504033      1.334018      0.044525
  C       0.902217      1.116108      0.031785
  H       2.486940     -0.391235     -0.161701
  H       0.909640     -2.360238      0.104476
  H      -1.584416     -1.972561      0.024204
  H      -2.475417      0.383344     -0.182111
  H      -0.901285      2.346970      0.139963
  H       1.593440      1.960705      0.074617
12
Coordinates from ORCA-job benzene_0_1_bp86_6-31gpol.eopt E -232.003437876477
  C       1.414104     -0.225699     -0.045989
  C       0.511697     -1.345986      0.022103
  C      -0.892580     -1.129425      0.002505
  C      -1.404107      0.215666     -0.055673
  C      -0.502529      1.334431      0.041931
  C       0.901885      1.118174      0.031149
  H       2.486728     -0.390202     -0.187754
  H       0.906789     -2.362354      0.120675
  H      -1.584316     -1.976607      0.039193
  H      -2.474897      0.382771     -0.208018
  H      -0.898602      2.348789      0.156033
  H       1.593178      1.964483      0.089856
12
Coordinates from ORCA-job benzene_0_1_bp86_6-31gpol.eopt E -232.003475010994
  C       1.414472     -0.225050     -0.043975
  C       0.511765     -1.345960      0.020274
  C      -0.893102     -1.128918      0.001236
  C      -1.404504      0.214982     -0.053663
  C      -0.502577      1.334436      0.040110
  C       0.902422      1.117688      0.029881
  H       2.487571     -0.390408     -0.182455
  H       0.906957     -2.362284      0.117215
  H      -1.584243     -1.976277      0.038476
  H      -2.475804      0.382887     -0.202783
  H      -0.898728      2.348781      0.152614
  H       1.593121      1.964163      0.089081
12
Coordinates from ORCA-job benzene_0_1_bp86_6-31gpol.eopt E -231.987428302800
  C       1.419841     -0.221874     -0.021143
  C       0.512592     -1.345673      0.003362
  C      -0.897283     -1.126660     -0.011235
  C      -1.410137      0.211414     -0.030773
  C      -0.503222      1.334443      0.023125
  C       0.906739      1.115654      0.017290
  H       2.497701     -0.395964     -0.114109
  H       0.907343     -2.363513      0.075053
  H      -1.581374     -1.978367      0.019215
  H      -2.486703      0.387254     -0.135183
  H      -0.898643      2.350727      0.111126
  H       1.590497      1.966599      0.069283
12
Coordinates from ORCA-job benzene_0_1_bp86_6-31gpol.eopt E -231.989036439780
  C       1.415658     -0.222189     -0.036073
  C       0.512147     -1.346494      0.017055
  C      -0.895335     -1.126851     -0.000621
  C      -1.405777      0.211985     -0.045730
  C      -0.502936      1.335033      0.036800
  C       0.904666      1.115669      0.027877
  H       2.489259     -0.390197     -0.168929
  H       0.907167     -2.363261      0.104130
  H      -1.584559     -1.975928      0.035411
  H      -2.477596      0.382429     -0.189602
  H      -0.898808      2.349960      0.139872
  H       1.593464      1.963884      0.085821
12
Coordinates from ORCA-job benzene_0_1_bp86_6-31gpol.eopt E -232.002753559462
  C       1.406316     -0.222805     -0.053897
  C       0.510289     -1.352550      0.031083
  C      -0.892384     -1.132663      0.008222
  C      -1.396130      0.212882     -0.063460
  C      -0.501283      1.340877      0.050782
  C       0.901575      1.121363      0.036891
  H       2.468572     -0.375120     -0.263751
  H       0.898058     -2.367458      0.162392
  H      -1.588276     -1.978411      0.066345
  H      -2.455733      0.368947     -0.283784
  H      -0.890389      2.353114      0.197759
  H       1.596734      1.965864      0.117429
12
Coordinates from ORCA-job benzene_0_1_bp86_6-31gpol.eopt E -232.002940512728
  C       1.406734     -0.222476     -0.062311
  C       0.509553     -1.348199      0.033901
  C      -0.891358     -1.129439      0.008308
  C      -1.396550      0.212731     -0.071999
  C      -0.500542      1.336453      0.053635
  C       0.900568      1.118111      0.036851
  H       2.472772     -0.381146     -0.264457
  H       0.902831     -2.362539      0.166976
  H      -1.586176     -1.974497      0.068256
  H      -2.460044      0.375051     -0.284563
  H      -0.895126      2.348114      0.202314
  H       1.594687      1.961876      0.119097
12
Coordinates from ORCA-job benzene_0_1_bp86_6-31gpol.eopt E -232.003198771600
  C       1.411740     -0.220050     -0.058778
  C       0.508152     -1.345020      0.026928
  C      -0.893630     -1.127580      0.003677
  C      -1.401709      0.210278     -0.068571
  C      -0.499054      1.333371      0.046772
  C       0.902907      1.116315      0.032028
  H       2.483002     -0.390683     -0.229447
  H       0.905994     -2.359410      0.145971
  H      -1.582096     -1.975268      0.062846
  H      -2.470710      0.384031     -0.250293
  H      -0.897991      2.345322      0.181900
  H       1.590747      1.962733      0.112978
12
Coordinates from ORCA-job benzene_0_1_bp86_6-31gpol.eopt E -232.003479662444
  C       1.419662     -0.218016     -0.045127
  C       0.507000     -1.342645      0.015934
  C      -0.897031     -1.126893     -0.003908
  C      -1.409878      0.208019     -0.054866
  C      -0.497771      1.331169      0.036110
  C       0.906418      1.115745      0.024204
  H       2.494782     -0.402795     -0.164250
  H       0.908979     -2.357660      0.106962
  H      -1.578036     -1.980544      0.042218
  H      -2.483239      0.395036     -0.186434
  H      -0.900515      2.344274      0.143915
  H       1.586980      1.968351      0.091253
12
Coordinates from ORCA-job benzene_0_1_bp86_6-31gpol.eopt E -232.003679710306
  C       1.425317     -0.217368     -0.028136
  C       0.507696     -1.342423      0.007321
  C      -0.899570     -1.126207     -0.009804
  C      -1.415681      0.207049     -0.037823
  C      -0.498377      1.331101      0.027637
  C       0.909040      1.115194      0.017826
  H       2.501382     -0.409204     -0.101585
  H       0.911555     -2.358124      0.069663
  H      -1.577508     -1.984218      0.015056
  H      -2.490507      0.400303     -0.125105
  H      -0.902732      2.345393      0.107814
  H       1.586733      1.972543      0.063146
12
Coordinates from ORCA-job benzene_0_1_bp86_6-31gpol.eopt E -231.985005326701
  C       1.428111     -0.218794     -0.011621
  C       0.510262     -1.343951      0.001989
  C      -0.900248     -1.125454     -0.012724
  C      -1.418519      0.208135     -0.021264
  C      -0.500884      1.332742      0.022242
  C       0.909767      1.114525      0.014302
  H       2.504142     -0.409947     -0.046632
  H       0.914248     -2.360445      0.036489
  H      -1.579893     -1.984356     -0.014318
  H      -2.493845      0.400007     -0.071317
  H      -0.905161      2.348320      0.075832
  H       1.589371      1.973258      0.033034
12
Coordinates from ORCA-job benzene_0_1_bp86_6-31gpol.eopt E -231.986443655119
  C       1.424168     -0.220495     -0.018371
  C       0.511132     -1.347844      0.008512
  C      -0.898402     -1.127753     -0.008078
  C      -1.414432      0.209946     -0.027896
  C      -0.501875      1.336535      0.028558
  C       0.907800      1.116780      0.019192
  H       2.500014     -0.399480     -0.088503
  H       0.909490     -2.365185      0.062800
  H      -1.582946     -1.982537     -0.003732
  H      -2.489049      0.390218     -0.112418
  H      -0.900748      2.352521      0.101520
  H       1.592198      1.971336      0.044427
12
Coordinates from ORCA-job benzene_0_1_bp86_6-31gpol.eopt E -232.003090592022
  C       1.414112     -0.216911     -0.029791
  C       0.505438     -1.350192      0.013315
  C      -0.897511     -1.133628     -0.006411
  C      -1.404093      0.206594     -0.039053
  C      -0.496319      1.338697      0.033336
  C       0.906738      1.122684      0.021444
  H       2.493104     -0.383272     -0.171447
  H       0.891732     -2.372712      0.120009
  H      -1.582267     -1.988796      0.026051
  H      -2.480997      0.375527     -0.194608
  H      -0.883576      2.358895      0.158012
  H       1.590990      1.977153      0.075154
12
Coordinates from ORCA-job benzene_0_1_bp86_6-31gpol.eopt E -231.989967698850
  C       1.417833     -0.219709     -0.036374
  C       0.508046     -1.349801      0.017949
  C      -0.896308     -1.131328     -0.005983
  C      -1.407879      0.209532     -0.045625
  C      -0.498962      1.338292      0.037938
  C       0.905548      1.120349      0.021485
  H       2.493264     -0.385903     -0.165805
  H       0.897095     -2.367588      0.121994
  H      -1.582317     -1.982242      0.020308
  H      -2.481260      0.378041     -0.189211
  H      -0.888895      2.353760      0.160143
  H       1.591185      1.970637      0.069189
12
Coordinates from ORCA-job benzene_0_1_bp86_6-31gpol.eopt E -232.003283935630
  C       1.416888     -0.221021     -0.049955
  C       0.507655     -1.347448      0.024395
  C      -0.894298     -1.130196     -0.004303
  C      -1.406922      0.211126     -0.059174
  C      -0.498651      1.335859      0.044431
  C       0.903509      1.119166      0.023057
  H       2.488918     -0.386424     -0.195244
  H       0.897614     -2.361777      0.148006
  H      -1.581157     -1.979093      0.029232
  H      -2.476613      0.379091     -0.218499
  H      -0.889589      2.347505      0.185887
  H       1.589996      1.967252      0.078177
12
Coordinates from ORCA-job benzene_0_1_bp86_6-31gpol.eopt E -232.003300341118
  C       1.415154     -0.216945     -0.049493
  C       0.505852     -1.343998      0.024581
  C      -0.895948     -1.127306     -0.005504
  C      -1.405272      0.207067     -0.058781
  C      -0.496834      1.332385      0.044740
  C       0.905194      1.116291      0.021728
  H       2.488682     -0.390210     -0.197727
  H       0.900425     -2.359619      0.147993
  H      -1.582015     -1.980769      0.032585
  H      -2.476402      0.382965     -0.221422
  H      -0.892340      2.345340      0.186213
  H       1.590854      1.968838      0.081098
12
Coordinates from ORCA-job benzene_0_1_bp86_6-31gpol.eopt E -232.003350408872
  C       1.415459     -0.218364     -0.046683
  C       0.507774     -1.346591      0.027054
  C      -0.895952     -1.127894     -0.003424
  C      -1.405575      0.208414     -0.055878
  C      -0.498804      1.334978      0.047109
  C       0.905164      1.116877      0.023540
  H       2.487424     -0.387066     -0.196246
  H       0.901150     -2.361821      0.146472
  H      -1.584613     -1.979396      0.025420
  H      -2.475052      0.379708     -0.220270
  H      -0.893106      2.347538      0.185081
  H       1.593482      1.967657      0.073835
12
Coordinates from ORCA-job benzene_0_1_bp86_6-31gpol.eopt E -232.003376028994
  C       1.416011     -0.219163     -0.046657
  C       0.508712     -1.346905      0.030225
  C      -0.895916     -1.127627     -0.001723
  C      -1.406144      0.209213     -0.055844
  C      -0.499789      1.335262      0.050306
  C       0.905104      1.116604      0.024833
  H       2.487234     -0.387794     -0.196916
  H       0.903484     -2.361367      0.146851
  H      -1.585583     -1.978014      0.021255
  H      -2.474766      0.380402     -0.221620
  H      -0.895460      2.347039      0.186122
  H       1.594464      1.966390      0.069177
12
Coordinates from ORCA-job benzene_0_1_bp86_6-31gpol.eopt E -232.003423097872
  C       1.417053     -0.219711     -0.043257
  C       0.510152     -1.347446      0.033928
  C      -0.896549     -1.127027      0.000472
  C      -1.407249      0.209703     -0.052391
  C      -0.501313      1.335781      0.054063
  C       0.905682      1.116022      0.026007
  H       2.488022     -0.389701     -0.191174
  H       0.907998     -2.361379      0.141836
  H      -1.587682     -1.976463      0.012419
  H      -2.475379      0.382119     -0.217836
  H      -0.899960      2.347021      0.183012
  H       1.596575      1.965120      0.058930
12
Coordinates from ORCA-job benzene_0_1_bp86_6-31gpol.eopt E -232.003497069580
  C       1.419152     -0.220243     -0.037140
  C       0.511660     -1.347695      0.035284
  C      -0.897510     -1.126299      0.001614
  C      -1.409439      0.210155     -0.046240
  C      -0.502905      1.336054      0.055542
  C       0.906566      1.115348      0.025408
  H       2.491098     -0.393544     -0.173773
  H       0.913707     -2.361301      0.129273
  H      -1.589561     -1.975136      0.001181
  H      -2.478270      0.385589     -0.204121
  H      -0.905559      2.346969      0.174038
  H       1.598410      1.964143      0.044943
12
Coordinates from ORCA-job benzene_0_1_bp86_6-31gpol.eopt E -232.003629028908
  C       1.423103     -0.221033     -0.024561
  C       0.513901     -1.348028      0.031349
  C      -0.899009     -1.125241      0.000638
  C      -1.413532      0.210783     -0.033712
  C      -0.505181      1.336521      0.051821
  C       0.907999      1.114373      0.021267
  H       2.497795     -0.399607     -0.130131
  H       0.921316     -2.361677      0.099635
  H      -1.591590     -1.973825     -0.016048
  H      -2.484999      0.390871     -0.167954
  H      -0.912823      2.347642      0.151735
  H       1.600372      1.963262      0.021972
12
Coordinates from ORCA-job benzene_0_1_bp86_6-31gpol.eopt E -231.985899940228
  C       1.426821     -0.222219     -0.011551
  C       0.515751     -1.347847      0.020428
  C      -0.899698     -1.124375     -0.003483
  C      -1.417313      0.211770     -0.021094
  C      -0.506920      1.336545      0.041368
  C       0.908772      1.113568      0.014204
  H       2.504463     -0.404992     -0.072008
  H       0.926051     -2.362205      0.061522
  H      -1.591723     -1.973656     -0.028917
  H      -2.492347      0.395357     -0.118558
  H      -0.917058      2.348791      0.122220
  H       1.600551      1.963302      0.001880
12
Coordinates from ORCA-job benzene_0_1_bp86_6-31gpol.eopt E -231.987463612273
  C       1.423313     -0.220198     -0.021961
  C       0.512985     -1.347645      0.023487
  C      -0.898987     -1.125046     -0.004773
  C      -1.413707      0.209950     -0.031057
  C      -0.504173      1.336194      0.043809
  C       0.907986      1.114305      0.016223
  H       2.499907     -0.396953     -0.111372
  H       0.916783     -2.362857      0.093946
  H      -1.590282     -1.974747     -0.018091
  H      -2.487422      0.388017     -0.150174
  H      -0.908111      2.348739      0.147007
  H       1.599059      1.964280      0.018967
12
Coordinates from ORCA-job benzene_0_1_bp86_6-31gpol.eopt E -232.002635429654
  C       1.411661     -0.214601     -0.029703
  C       0.506443     -1.354272      0.023902
  C      -0.901999     -1.136248     -0.002938
  C      -1.401442      0.204211     -0.038734
  C      -0.497988      1.342836      0.044197
  C       0.910791      1.125794      0.021659
  H       2.489075     -0.367816     -0.191315
  H       0.883590     -2.377805      0.144608
  H      -1.589825     -1.988402      0.011878
  H      -2.475209      0.359955     -0.223467
  H      -0.875845      2.362718      0.191363
  H       1.598097      1.977669      0.054562
12
Coordinates from ORCA-job benzene_0_1_bp86_6-31gpol.eopt E -232.003233415457
  C       1.417414     -0.214385     -0.048105
  C       0.505814     -1.344728      0.034464
  C      -0.898501     -1.125335     -0.012983
  C      -1.407602      0.204720     -0.055019
  C      -0.497039      1.332794      0.053094
  C       0.907217      1.114772      0.011547
  H       2.490179     -0.378017     -0.184473
  H       0.894239     -2.356390      0.182912
  H      -1.587207     -1.974390     -0.016332
  H      -2.477041      0.370674     -0.214969
  H      -0.886027      2.340482      0.227132
  H       1.595904      1.963843      0.028741
12
Coordinates from ORCA-job benzene_0_1_bp86_6-31gpol.eopt E -232.003368878586
  C       1.418490     -0.215214     -0.046298
  C       0.506593     -1.343115      0.039656
  C      -0.898909     -1.124898     -0.009783
  C      -1.408727      0.205580     -0.055004
  C      -0.497972      1.331234      0.059364
  C       0.907716      1.114395      0.012358
  H       2.491631     -0.386687     -0.179713
  H       0.901731     -2.355287      0.173530
  H      -1.587695     -1.976268     -0.019139
  H      -2.478437      0.379093     -0.213240
  H      -0.893507      2.339418      0.221219
  H       1.596436      1.965789      0.023062
12
Coordinates from ORCA-job benzene_0_1_bp86_6-31gpol.eopt E -232.003494978967
  C       1.420636     -0.216467     -0.037284
  C       0.509041     -1.343415      0.040294
  C      -0.899929     -1.124511     -0.005130
  C      -1.411140      0.206711     -0.047608
  C      -0.500595      1.331875      0.060393
  C       0.908850      1.113985      0.013604
  H       2.494487     -0.396879     -0.159468
  H       0.911834     -2.356829      0.143171
  H      -1.588315     -1.977845     -0.019121
  H      -2.481345      0.388567     -0.198429
  H      -0.903384      2.341497      0.197100
  H       1.597209      1.967350      0.018488
12
Coordinates from ORCA-job benzene_0_1_bp86_6-31gpol.eopt E -232.003611323790
  C       1.423071     -0.218665     -0.026546
  C       0.511747     -1.344935      0.033713
  C      -0.900110     -1.124725     -0.001472
  C      -1.413779      0.208688     -0.037898
  C      -0.503307      1.333753      0.053562
  C       0.909157      1.114111      0.014615
  H       2.498214     -0.404136     -0.128559
  H       0.919024     -2.359536      0.104205
  H      -1.588223     -1.978794     -0.015029
  H      -2.485358      0.394977     -0.172975
  H      -0.910286      2.345072      0.164424
  H       1.597201      1.968230      0.017971
12
Coordinates from ORCA-job benzene_0_1_bp86_6-31gpol.eopt E -231.984545962687
  C       1.427661     -0.224331     -0.001897
  C       0.517761     -1.348294      0.010283
  C      -0.899224     -1.125026      0.003215
  C      -1.418584      0.213670     -0.015055
  C      -0.508976      1.337673      0.029455
  C       0.908695      1.113981      0.015470
  H       2.504973     -0.415566     -0.045354
  H       0.930263     -2.363222      0.010417
  H      -1.587451     -1.979330     -0.002670
  H      -2.493546      0.404533     -0.101511
  H      -0.920940      2.351555      0.083967
  H       1.596719      1.968398      0.019690
12
Coordinates from ORCA-job benzene_0_1_bp86_6-31gpol.eopt E -231.987368366347
  C       1.423670     -0.219366     -0.021804
  C       0.512527     -1.347103      0.022930
  C      -0.899897     -1.125586     -0.002721
  C      -1.414271      0.209238     -0.032719
  C      -0.503952      1.336005      0.041964
  C       0.908914      1.114989      0.013869
  H       2.500123     -0.401249     -0.109432
  H       0.916184     -2.363138      0.082130
  H      -1.587318     -1.978725     -0.004311
  H      -2.487444      0.391807     -0.155383
  H      -0.907269      2.348990      0.144148
  H       1.596083      1.968178      0.027340
12
Coordinates from ORCA-job benzene_0_1_bp86_6-31gpol.eopt E -232.002438876718
  C       1.424326     -0.208489     -0.039094
  C       0.504942     -1.351446      0.010040
  C      -0.906174     -1.130765     -0.025214
  C      -1.413981      0.198509     -0.043421
  C      -0.496259      1.339786      0.024153
  C       0.914876      1.121041     -0.003298
  H       2.501043     -0.377244     -0.145391
  H       0.885672     -2.367692      0.099045
  H      -1.579409     -1.978277      0.058472
  H      -2.487594      0.369127     -0.180915
  H      -0.876920      2.352475      0.149408
  H       1.586827      1.967017      0.102225
12
Coordinates from ORCA-job benzene_0_1_bp86_6-31gpol.eopt E -232.003128639857
  C       1.423425     -0.213289     -0.034887
  C       0.506946     -1.350917      0.009708
  C      -0.902912     -1.130573     -0.014677
  C      -1.413426      0.203312     -0.040460
  C      -0.498292      1.339467      0.024584
  C       0.911598      1.120513      0.004865
  H       2.500557     -0.384395     -0.133829
  H       0.894885     -2.370422      0.082708
  H      -1.583297     -1.982743      0.051810
  H      -2.487254      0.375694     -0.173365
  H      -0.885921      2.355838      0.137557
  H       1.591041      1.971555      0.091996
12
Coordinates from ORCA-job benzene_0_1_bp86_6-31gpol.eopt E -232.003706540452
  C       1.423534     -0.220509     -0.028402
  C       0.511869     -1.347677      0.015821
  C      -0.896596     -1.124017      0.001726
  C      -1.414194      0.210619     -0.037135
  C      -0.503209      1.336490      0.034479
  C       0.905390      1.113431      0.017170
  H       2.499968     -0.397823     -0.113546
  H       0.915260     -2.365084      0.073307
  H      -1.587965     -1.977242      0.017094
  H      -2.487188      0.388305     -0.159519
  H      -0.906057      2.351198      0.134328
  H       1.596538      1.966349      0.050688
