!uks b3lyp def2-svp tightscf ri-somf(1x)
!normalprint autoaux rijcosx
!pal8
!moread

%moinp "Mo-TAEA-NH3_0_2_bp86_lanl2dz_6-31gpol.opt.gbw"

%scf
  maxiter 500
end

%basis
  newgto Mo "def2-tzvpp" end
end

%eprnmr
  gtensor true
  dtensor ssandso
  dsoc cp
  dss direct
end

*xyzfile 0 2 Mo-TAEA-NH3_0_2_bp86_lanl2dz_6-31gpol.opt.xyz
